V5/metrics/angular_realism_v2.csv
bus,channel,mean_wrapped_error_deg,p50_wrapped_error_deg,p95_wrapped_error_deg,circular_variance_delta,mean_resultant_length_delta,sin_embedding_distance,cos_embedding_distance,circular_corr_sin,circular_corr_cos,angle_increment_wasserstein_deg,angle_derivative_autocorr_delta,wrap_event_rate_ref,wrap_event_rate_sim,wrap_event_rate_delta
BUS39,VA_ANG,88.37382210724901,86.57729695823815,170.62689621688872,0.9764320412917347,0.9764320412917347,0.6101786306813674,0.9764320412917348,0.018503530549616475,0.008605673124592145,2.0268039204914876,1.493018030455828,0.0009852216748768472,0.0,0.0009852216748768472
BUS39,VB_ANG,88.36637396907427,86.58686950479125,170.63832924707873,0.9764178883844021,0.9764178883844021,0.6099707012228204,0.9764178883844024,0.02045680966320836,0.0184402246860348,2.0452082688038513,1.4916936100565015,0.0009852216748768472,0.0,0.0009852216748768472
BUS39,VC_ANG,88.42249215800558,86.58544244862503,170.89002481707635,0.976427983899431,0.976427983899431,0.6100653465820809,0.976427983899431,-0.009559251550793818,0.026035632067148998,2.0360334350657325,1.4973449424136507,0.0009852216748768472,0.0,0.0009852216748768472
BUS39,IA_ANG,88.39825582558962,86.47016354595146,170.66375006750218,0.9762949374322368,0.9762949374322368,0.6094160332785481,0.9762949374322366,-0.00832212026560252,0.011998224036917212,2.071817323036086,1.1631376861210132,0.0009852216748768472,0.0,0.0009852216748768472
BUS39,IB_ANG,88.38963275364921,86.52219328834963,171.03509780301317,0.9763299193526522,0.9763299193526522,0.610177400656019,0.9763299193526521,-0.002748574265178895,-0.006539064219130321,2.0261040065714897,1.1572871345064555,0.0009852216748768472,0.0,0.0009852216748768472
BUS39,IC_ANG,88.358762399851,86.50787165316913,170.98872756464925,0.9763120751268687,0.9763120751268687,0.6099311174263761,0.9763120751268686,0.018587759875770295,-0.018105434429737735,2.032679633170771,1.1474522991490943,0.0009852216748768472,0.0,0.0009852216748768472
BUS29,VA_ANG,88.6353957050074,87.63202060078784,170.7013928493378,0.9810278846647691,0.9810278846647691,0.6046977424251136,0.9810278846647691,0.005032695842491892,0.0029276414553419798,2.0466406734485587,1.487951515474915,0.0010064159013712416,0.0,0.0010064159013712416
BUS29,VB_ANG,88.66235959578502,87.90336144759598,170.91865750868615,0.9810210462630388,0.9810210462630388,0.6047418344826232,0.9810210462630388,-0.009744614190204401,-0.009214508091792748,2.050095636386247,1.506678971291826,0.0010064159013712416,0.0,0.0010064159013712416
BUS29,VC_ANG,88.63116075229829,87.7342795642046,170.85338303849312,0.9810388809783444,0.9810388809783444,0.6047967144094017,0.9810388809783445,0.013974034903139131,-0.01500857870124772,2.0202307889993114,1.493598138928036,0.0010064159013712416,0.0,0.0010064159013712416
BUS29,IA_ANG,88.61063293747877,88.01051239335261,170.8558278067164,0.9810154974511174,0.9810154974511174,0.6043863162344394,0.9810154974511175,0.021225575939122252,-0.009215527326938403,2.059925132681133,1.4970259705170454,0.0010064159013712416,0.0,0.0010064159013712416
BUS29,IB_ANG,88.61878870784176,87.93006061531155,170.78554063835247,0.9810259312913003,0.9810259312913003,0.6046839525832954,0.9810259312913002,0.01433945957807583,0.009587269683090057,2.03762940550468,1.4878677545370445,0.0010064159013712416,0.0,0.0010064159013712416
BUS29,IC_ANG,88.65592922341514,87.69149140886529,170.85935568853554,0.981031785555587,0.981031785555587,0.6047128611827268,0.981031785555587,-0.007273465716600787,-0.01144158531310878,1.9947888983659225,1.4717247521610113,0.0010064159013712416,0.0,0.0010064159013712416
BUS10,VA_ANG,88.28140802787047,86.62523651172103,170.70895492458573,0.9762911017114536,0.9762911017114536,0.6088702340900429,0.9762911017114537,0.0571133766824071,0.019828092234049712,2.0581269559599438,1.4786965310809923,0.0009852216748768472,0.0,0.0009852216748768472
BUS10,VB_ANG,88.4117941294719,86.60478315603085,170.67279624983706,0.9763599307285006,0.9763599307285006,0.6100134188172326,0.9763599307285006,-0.011426895137782667,-0.011777408837195422,2.044517141066689,1.4832500914367992,0.0009852216748768472,0.0,0.0009852216748768472
BUS10,VC_ANG,88.37415033532868,86.73327013549573,170.5083893607009,0.9763604809213772,0.9763604809213772,0.6099104311565463,0.9763604809213773,0.010990630023903724,0.02558818524679126,2.0725241165888977,1.5025458445674365,0.0009852216748768472,0.0,0.0009852216748768472
BUS10,IA_ANG,88.33367508229375,86.58319818946711,170.9114062208663,0.9764219781157366,0.9764219781157366,0.6094092697835299,0.9764219781157365,0.04726497051437992,0.020221713459093196,2.02518329857262,1.469182023137595,0.0009852216748768472,0.0,0.0009852216748768472
BUS10,IB_ANG,88.36847299907983,86.2475473798787,170.87513479045379,0.9763904223010431,0.9763904223010431,0.6086617632363122,0.976390422301043,0.017910265493676514,-0.013360123209401435,2.0951687684601668,1.4886059996234589,0.0009852216748768472,0.0,0.0009852216748768472
BUS10,IC_ANG,88.38991819919656,86.52608219815845,170.88621072080002,0.9764103303147637,0.9764103303147637,0.6090380495761842,0.9764103303147635,0.013725934189967513,-0.010687773186062986,2.096707796261872,1.4946801535921868,0.0009852216748768472,0.0,0.0009852216748768472
BUS22,VA_ANG,88.4035238035821,86.67323164188062,170.9536439616681,0.9763029413931164,0.9763029413931164,0.6097083758103906,0.9763029413931166,-0.0057639190416670615,-0.004052559853062006,2.082244773385539,1.495280195814723,0.0009848578111535148,0.0,0.0009848578111535148
BUS22,VB_ANG,88.37657021281242,86.65375686723416,170.6774207467957,0.9763299009624429,0.9763299009624429,0.6102959374348308,0.9763299009624429,0.0070693223113288215,-0.02033973080975264,2.028609083640957,1.4968674861442164,0.0009848578111535148,0.0,0.0009848578111535148
BUS22,VC_ANG,88.4185901682131,86.40018184571073,170.99724964526726,0.9763124446365536,0.9763124446365536,0.6099757798835407,0.9763124446365536,-0.0023238466120162698,0.01667451825434251,2.0658676496117367,1.4964972030054753,0.0009848578111535148,0.0,0.0009848578111535148
BUS22,IA_ANG,88.40469337397556,86.69470292699503,170.81720530948624,0.9763751415447621,0.9763751415447621,0.6103485274174678,0.9763751415447621,-0.014758991230661466,-0.004908436112173488,2.011392555510683,1.4989294967851903,0.0009848578111535148,0.0,0.0009848578111535148
BUS22,IB_ANG,88.38118086386439,86.62753419402571,170.67779165498334,0.9763773484144803,0.9763773484144803,0.6103915292931152,0.9763773484144804,-0.0021729255323423113,0.02589863144140081,2.028424704988359,1.4932354420728133,0.0009848578111535148,0.0,0.0009848578111535148
BUS22,IC_ANG,88.36893174453917,86.5335167992866,170.9395775520665,0.9763699747570331,0.9763699747570331,0.6101950023443796,0.9763699747570332,0.012037745189811162,-0.02738589236427008,2.0325987305681052,1.5024748892586495,0.0009848578111535148,0.0,0.0009848578111535148
BUS19,VA_ANG,88.36249741911953,86.7966817698593,170.604490889158,0.9762667479561568,0.9762667479561568,0.6103191723570021,0.9762667479561568,0.018325433984305712,0.0003172680574005425,2.0838510969184467,1.5063628908737066,0.0009844942160964804,0.0,0.0009844942160964804
BUS19,VB_ANG,88.37343831664747,86.64015269615336,170.71561921441938,0.9762685571544055,0.9762685571544055,0.6101735566110403,0.9762685571544054,0.01190051922729087,0.014536949608595045,2.047881184338891,1.5059995606432683,0.0009844942160964804,0.0,0.0009844942160964804
BUS19,VC_ANG,88.41708841336016,86.93942397467673,170.67563745500354,0.9762932541505741,0.9762932541505741,0.6110054092101447,0.9762932541505741,-0.009980807314279269,-0.022437719643823417,1.9990351773515362,1.507880370172193,0.0009844942160964804,0.0,0.0009844942160964804
BUS19,IA_ANG,88.38351829732646,86.78774187468628,170.66418306385725,0.9762310542726234,0.9762310542726234,0.6103955115369726,0.9762310542726234,0.008627185071200662,-0.015454199749046995,2.0293533440903597,1.4510519313784456,0.0009844942160964804,0.0,0.0009844942160964804
BUS19,IB_ANG,88.37088453618334,86.91020068964592,170.62485077592913,0.9762288236048414,0.9762288236048414,0.6103457196283818,0.9762288236048414,0.009341680636952577,0.008016210834531502,2.0332730759677617,1.4590594344254209,0.0009844942160964804,0.0,0.0009844942160964804
BUS19,IC_ANG,88.41245101602364,86.73908194786986,171.00285738364207,0.976223160371754,0.976223160371754,0.6101640498202323,0.9762231603717539,-0.0035942398346079404,0.004851748321016351,2.054610281498962,1.446467815031364,0.0009844942160964804,0.0,0.0009844942160964804
BUS2,VA_ANG,88.36858718334473,86.70812632204758,170.90733575576832,0.9764130553715236,0.9764130553715236,0.609322766838827,0.9764130553715237,0.02371110605125547,0.022257392835415182,2.0672733852081855,1.4897567509563783,0.0009857072449482504,0.0,0.0009857072449482504
BUS2,VB_ANG,88.36176742076428,86.41654377257578,170.58924107320104,0.9764242847782616,0.9764242847782616,0.6095889681507053,0.9764242847782616,0.031741698814901645,0.004036544154178456,2.058638229331672,1.525847635960921,0.0009857072449482504,0.0,0.0009857072449482504
BUS2,VC_ANG,88.40083170568622,86.53901001866373,170.9252679351643,0.9764255125859161,0.9764255125859161,0.6096562456480212,0.976425512585916,0.005583490487277544,0.02091901418713772,2.031762263938464,1.4856004340574005,0.0009857072449482504,0.0,0.0009857072449482504
BUS2,IA_ANG,88.36552401778528,86.45383983456753,170.73652940815765,0.9766691515187871,0.9766691515187871,0.6093175586581675,0.976669151518787,0.03186645405815319,0.020737226735376934,2.0308270537758943,1.436051345788596,0.0009857072449482504,0.0,0.0009857072449482504
BUS2,IB_ANG,88.34421215081427,86.7675372848538,170.8780368880849,0.9766675309995682,0.9766675309995682,0.6091595225159767,0.976667530999568,0.05198253619461641,0.03444845383627723,2.0465541999285017,1.4489161043909546,0.0009857072449482504,0.0,0.0009857072449482504
BUS2,IC_ANG,88.38225850508603,86.41701672200986,170.78082258685427,0.9766683038698992,0.9766683038698992,0.609252147182158,0.9766683038698992,0.03201690117226819,0.017782346107604995,2.070638491066691,1.4306939974676771,0.0009857072449482504,0.0,0.0009857072449482504
BUS5,VA_ANG,89.53557668253367,88.54908080471392,170.79561018491793,0.9435501305337959,0.9435501305337959,0.5656670793973204,0.9435501305337959,0.010902080320017684,-0.1277396374664541,7.022059836728888,1.181407841353345,0.0009851003570988794,0.006033739687230637,0.005048639330131758
BUS5,VB_ANG,89.48777582343837,88.60082937082214,170.58385412624384,0.9463949652354418,0.9463949652354418,0.5673712036291951,0.9463949652354416,0.0025082691178854462,-0.1285251853377869,6.6707974640395715,1.1924435628673404,0.0009851003570988794,0.005418051964043837,0.004432951606944958
BUS5,VC_ANG,89.29176613768018,88.26736026908577,170.66826616426073,0.9435393310847775,0.9435393310847775,0.5659016749435698,0.9435393310847775,0.016747001608385118,-0.11299797505731392,7.008985153323379,1.2107275253329142,0.0009851003570988794,0.007265115133604236,0.006280014776505357
BUS5,IA_ANG,88.33720413083051,86.71758180885382,170.73620751677933,0.9762947139354257,0.9762947139354257,0.6095994222531966,0.9762947139354259,0.04230489581093496,0.028049384422712605,2.063223876986587,1.4963287218540637,0.0009851003570988794,0.0,0.0009851003570988794
BUS5,IB_ANG,88.45593212057344,86.5667773903507,170.83773989568456,0.9762910666083062,0.9762910666083062,0.6095241427753276,0.9762910666083089,-0.03765387007638421,-0.00797060037509796,2.0699374271438606,1.4870903002649083,0.0009851003570988794,0.0,0.0009851003570988794
BUS5,IC_ANG,88.34526037976096,86.49623134695696,170.67279357806993,0.9763133423322928,0.9763133423322928,0.6100962115702948,0.9763133423322929,0.026874340168815326,0.012198318771072551,2.0078505023570723,1.4901636828904716,0.0009851003570988794,0.0,0.0009851003570988794
BUS6,VA_ANG,88.41929720187369,86.64991539569209,170.8128915629932,0.9761059203128312,0.9761059203128312,0.611428594853475,0.9761059203128313,-0.03120034602616278,0.03202402188785362,2.0348266342708876,1.5014532347540404,0.0009828009828009828,0.0,0.0009828009828009828
BUS6,VB_ANG,88.34039334000182,86.71289624984166,170.41986635822457,0.9761013862447615,0.9761013862447615,0.6112357959010404,0.9761013862447614,0.026481194300282347,0.0028305463633343424,2.0443305099617763,1.4877786602673517,0.0009828009828009828,0.0,0.0009828009828009828
BUS6,VC_ANG,88.38691483748904,86.65168460606637,170.87541172110807,0.9761108505737496,0.9761108505737496,0.6116212760440878,0.9761108505737496,-0.016173409432249788,0.0190691778909179,2.0251194088075386,1.4882867328667144,0.0009828009828009828,0.0,0.0009828009828009828
BUS6,IA_ANG,88.31638551905608,86.68922696811225,170.66078755541562,0.976176223949911,0.976176223949911,0.6112356703156695,0.976176223949911,0.03396211564810342,0.010426582023287945,2.039160581686342,1.482530166759089,0.0009828009828009828,0.0,0.0009828009828009828
BUS6,IB_ANG,88.44217875099825,86.59637676195017,170.8046177792674,0.9761726041722086,0.9761726041722086,0.6109656907969109,0.9761726041722086,-0.02288324696830517,-0.003135952844305872,2.0733523941977805,1.5006802505923549,0.0009828009828009828,0.0,0.0009828009828009828
BUS6,IC_ANG,88.44182551972459,86.65569447947547,171.0961215229475,0.976176423288166,0.976176423288166,0.6110161357287582,0.9761764232881659,-0.038680803782402115,-0.005130708023925485,2.029672449725791,1.46857062826702,0.0009828009828009828,0.0,0.0009828009828009828
